40
BACH OUTPUT
C 0.0000 0.0000 0.0000 11:4500000..4550000
C 0.1171 0.0000 0.0000 11:4550000..4600000
C 0.2154 0.0191 0.0000 11:4600000..4650000
C 0.2788 0.1205 0.0032 11:4650000..4700000
C 0.2675 0.2117 0.0483 11:4700000..4750000
C 0.2319 0.2443 -0.0651 11:4750000..4800000
C 0.3500 0.2610 -0.0841 11:4800000..4850000
C 0.3928 0.2065 -0.1718 11:4850000..4900000
C 0.3239 0.1194 -0.1934 11:4900000..4950000
C 0.3751 0.0796 -0.1273 11:4950000..5000000
C 0.3953 0.0881 -0.0342 11:5000000..5050000
C 0.4415 -0.0028 0.0099 11:5050000..5100000
C 0.5121 -0.0268 0.0811 11:5100000..5150000
C 0.5873 0.0075 0.1276 11:5150000..5200000
C 0.5881 -0.0473 0.1709 11:5200000..5250000
C 0.5936 -0.0225 0.2254 11:5250000..5300000
C 0.5278 -0.0386 0.2350 11:5300000..5350000
C 0.4843 -0.1102 0.2122 11:5350000..5400000
C 0.5298 -0.2055 0.2081 11:5400000..5450000
C 0.6176 -0.2454 0.1541 11:5450000..5500000
C 0.6961 -0.1852 0.1277 11:5500000..5550000
C 0.7477 -0.1957 0.1750 11:5550000..5600000
C 0.8203 -0.1630 0.1169 11:5600000..5650000
C 0.8932 -0.2311 0.0798 11:5650000..5700000
C 0.8210 -0.2053 0.0087 11:5700000..5750000
C 0.8740 -0.1617 -0.0686 11:5750000..5800000
C 0.7974 -0.0856 -0.0548 11:5800000..5850000
C 0.7686 -0.1066 -0.1348 11:5850000..5900000
C 0.7138 -0.2212 -0.1073 11:5900000..5950000
C 0.6730 -0.2670 -0.2090 11:5950000..6000000
C 0.7005 -0.3714 -0.2593 11:6000000..6050000
C 0.6824 -0.4127 -0.3498 11:6050000..6100000
C 0.6171 -0.4294 -0.4388 11:6100000..6150000
C 0.5399 -0.4296 -0.3549 11:6150000..6200000
C 0.5308 -0.5100 -0.3216 11:6200000..6250000
C 0.5492 -0.5054 -0.2512 11:6250000..6300000
C 0.6320 -0.4908 -0.2254 11:6300000..6350000
C 0.6811 -0.5740 -0.2327 11:6350000..6400000
C 0.7037 -0.6886 -0.2109 11:6400000..6450000
C 0.6554 -0.7295 -0.1957 11:6450000..6500000
