361
xyz file converted from /share/backup2/deltabakcup/visualization/download_data/pipeline/Delta_AR/mogen/X/mogen_output/nm_1528864615079.pdb
C 2.005000 0.683000 0.458000 X:114000000..114050000
C 1.949000 0.670000 0.482000 X:114050000..114100000
C 2.030000 0.627000 0.583000 X:114100000..114150000
C 2.016000 0.614000 0.616000 X:114150000..114200000
C 2.043000 0.603000 0.622000 X:114200000..114250000
C 2.049000 0.574000 0.646000 X:114250000..114300000
C 2.059000 0.541000 0.690000 X:114300000..114350000
C 2.066000 0.477000 0.657000 X:114350000..114400000
C 2.040000 0.374000 0.682000 X:114400000..114450000
C 2.035000 0.207000 0.704000 X:114450000..114500000
C 2.060000 -0.086000 0.681000 X:114500000..114550000
C 2.238000 -0.496000 0.665000 X:114550000..114600000
C 2.077000 -0.598000 0.695000 X:114600000..114650000
C 2.015000 -0.731000 0.688000 X:114650000..114700000
C 1.985000 -0.854000 0.686000 X:114700000..114750000
C 1.983000 -0.893000 0.632000 X:114750000..114800000
C 2.004000 -0.871000 0.582000 X:114800000..114850000
C 2.086000 -0.738000 0.517000 X:114850000..114900000
C 2.019000 -0.402000 0.593000 X:114900000..114950000
C 1.873000 -0.107000 0.557000 X:114950000..115000000
C 1.611000 -0.021000 0.554000 X:115000000..115050000
C 1.536000 0.012000 0.563000 X:115050000..115100000
C 1.461000 0.088000 0.582000 X:115100000..115150000
C 1.453000 0.145000 0.589000 X:115150000..115200000
C 1.396000 0.187000 0.595000 X:115200000..115250000
C 1.420000 0.209000 0.615000 X:115250000..115300000
C 1.444000 0.199000 0.654000 X:115300000..115350000
C 1.502000 0.220000 0.656000 X:115350000..115400000
C 1.493000 0.225000 0.644000 X:115400000..115450000
C 1.601000 0.241000 0.681000 X:115450000..115500000
C 1.594000 0.273000 0.732000 X:115500000..115550000
C 1.596000 0.276000 0.811000 X:115550000..115600000
C 1.678000 0.330000 0.941000 X:115600000..115650000
C 1.585000 0.402000 0.922000 X:115650000..115700000
C 1.635000 0.419000 1.021000 X:115700000..115750000
C 1.608000 0.391000 1.073000 X:115750000..115800000
C 1.634000 0.384000 1.148000 X:115800000..115850000
C 1.640000 0.423000 1.179000 X:115850000..115900000
C 1.600000 0.456000 1.204000 X:115900000..115950000
C 1.583000 0.442000 1.222000 X:115950000..116000000
C 1.589000 0.453000 1.240000 X:116000000..116050000
C 1.557000 0.481000 1.257000 X:116050000..116100000
C 1.502000 0.461000 1.298000 X:116100000..116150000
C 1.572000 0.457000 1.353000 X:116150000..116200000
C 1.577000 0.483000 1.357000 X:116200000..116250000
C 1.615000 0.501000 1.336000 X:116250000..116300000
C 1.623000 0.499000 1.332000 X:116300000..116350000
C 1.614000 0.509000 1.345000 X:116350000..116400000
C 1.547000 0.511000 1.313000 X:116400000..116450000
C 1.456000 0.492000 1.302000 X:116450000..116500000
C 1.474000 0.474000 1.275000 X:116500000..116550000
C 1.484000 0.483000 1.277000 X:116550000..116600000
C 1.511000 0.455000 1.318000 X:116600000..116650000
C 1.480000 0.439000 1.360000 X:116650000..116700000
C 1.473000 0.392000 1.391000 X:116700000..116750000
C 1.463000 0.390000 1.406000 X:116750000..116800000
C 1.385000 0.380000 1.376000 X:116800000..116850000
C 1.225000 0.328000 1.404000 X:116850000..116900000
C 1.115000 0.327000 1.436000 X:116900000..116950000
C 1.031000 0.277000 1.443000 X:116950000..117000000
C 0.956000 0.241000 1.373000 X:117000000..117050000
C 0.903000 0.211000 1.265000 X:117050000..117100000
C 0.897000 0.143000 1.235000 X:117100000..117150000
C 0.862000 0.113000 1.061000 X:117150000..117200000
C 0.847000 0.046000 0.969000 X:117200000..117250000
C 0.832000 -0.049000 0.916000 X:117250000..117300000
C 0.817000 -0.193000 0.908000 X:117300000..117350000
C 0.788000 -0.401000 0.897000 X:117350000..117400000
C 0.704000 -0.383000 0.682000 X:117400000..117450000
C 0.607000 -0.698000 0.553000 X:117450000..117500000
C 0.560000 -0.834000 0.458000 X:117500000..117550000
C 0.560000 -0.908000 0.405000 X:117550000..117600000
C 0.536000 -0.902000 0.380000 X:117600000..117650000
C 0.524000 -0.858000 0.305000 X:117650000..117700000
C 0.552000 -0.945000 0.333000 X:117700000..117750000
C 0.556000 -0.905000 0.409000 X:117750000..117800000
C 0.557000 -0.910000 0.340000 X:117800000..117850000
C 0.569000 -0.893000 0.286000 X:117850000..117900000
C 0.575000 -0.800000 0.288000 X:117900000..117950000
C 0.581000 -0.638000 0.324000 X:117950000..118000000
C 0.593000 -0.417000 0.373000 X:118000000..118050000
C 0.576000 -0.355000 0.401000 X:118050000..118100000
C 0.501000 -0.481000 0.376000 X:118100000..118150000
C 0.466000 -0.496000 0.374000 X:118150000..118200000
C 0.445000 -0.434000 0.362000 X:118200000..118250000
C 0.424000 -0.366000 0.352000 X:118250000..118300000
C 0.392000 -0.422000 0.359000 X:118300000..118350000
C 0.331000 -0.487000 0.331000 X:118350000..118400000
C 0.323000 -0.333000 0.317000 X:118400000..118450000
C 0.273000 -0.388000 0.302000 X:118450000..118500000
C 0.200000 -0.613000 0.310000 X:118500000..118550000
C 0.167000 -0.789000 0.395000 X:118550000..118600000
C 0.143000 -1.187000 0.571000 X:118600000..118650000
C 0.062000 -1.305000 0.657000 X:118650000..118700000
C -0.024000 -1.396000 0.622000 X:118700000..118750000
C -0.112000 -1.448000 0.580000 X:118750000..118800000
C -0.172000 -1.482000 0.561000 X:118800000..118850000
C -0.122000 -1.473000 0.586000 X:118850000..118900000
C -0.050000 -1.278000 0.689000 X:118900000..118950000
C 0.016000 -1.014000 0.650000 X:118950000..119000000
C 0.010000 -0.835000 0.527000 X:119000000..119050000
C 0.057000 -0.609000 0.390000 X:119050000..119100000
C 0.117000 -0.378000 0.314000 X:119100000..119150000
C 0.170000 -0.203000 0.280000 X:119150000..119200000
C 0.213000 -0.076000 0.274000 X:119200000..119250000
C 0.249000 0.019000 0.281000 X:119250000..119300000
C 0.267000 0.086000 0.287000 X:119300000..119350000
C 0.273000 0.129000 0.303000 X:119350000..119400000
C 0.285000 0.166000 0.332000 X:119400000..119450000
C 0.295000 0.199000 0.376000 X:119450000..119500000
C 0.302000 0.232000 0.414000 X:119500000..119550000
C 0.302000 0.252000 0.468000 X:119550000..119600000
C 0.301000 0.266000 0.546000 X:119600000..119650000
C 0.303000 0.298000 0.605000 X:119650000..119700000
C 0.317000 0.310000 0.725000 X:119700000..119750000
C 0.358000 0.276000 0.950000 X:119750000..119800000
C 0.416000 0.252000 1.172000 X:119800000..119850000
C 0.463000 0.275000 1.286000 X:119850000..119900000
C 0.506000 0.328000 1.385000 X:119900000..119950000
C 0.531000 0.404000 1.401000 X:119950000..120000000
C 0.565000 0.461000 1.506000 X:120000000..120050000
C 0.616000 0.532000 1.568000 X:120050000..120100000
C 0.612000 0.463000 1.450000 X:120100000..120150000
C 0.598000 0.430000 1.408000 X:120150000..120200000
C 0.592000 0.394000 1.447000 X:120200000..120250000
C 0.589000 0.372000 1.429000 X:120250000..120300000
C 0.589000 0.379000 1.408000 X:120300000..120350000
C 0.596000 0.391000 1.406000 X:120350000..120400000
C 0.596000 0.411000 1.504000 X:120400000..120450000
C 0.603000 0.461000 1.501000 X:120450000..120500000
C 0.592000 0.532000 1.541000 X:120500000..120550000
C 0.553000 0.590000 1.611000 X:120550000..120600000
C 0.563000 0.682000 1.629000 X:120600000..120650000
C 0.518000 0.727000 1.675000 X:120650000..120700000
C 0.488000 0.791000 1.672000 X:120700000..120750000
C 0.529000 0.820000 1.671000 X:120750000..120800000
C 0.564000 0.822000 1.708000 X:120800000..120850000
C 0.565000 0.775000 1.695000 X:120850000..120900000
C 0.509000 0.869000 1.736000 X:120900000..120950000
C 0.525000 0.836000 1.721000 X:120950000..121000000
C 0.537000 0.752000 1.699000 X:121000000..121050000
C 0.479000 0.839000 1.744000 X:121050000..121100000
C 0.464000 0.887000 1.743000 X:121100000..121150000
C 0.489000 0.904000 1.724000 X:121150000..121200000
C 0.483000 0.948000 1.793000 X:121200000..121250000
C 0.444000 0.925000 1.803000 X:121250000..121300000
C 0.430000 0.920000 1.823000 X:121300000..121350000
C 0.423000 0.832000 1.749000 X:121350000..121400000
C 0.471000 0.784000 1.716000 X:121400000..121450000
C 0.471000 0.846000 1.739000 X:121450000..121500000
C 0.464000 0.915000 1.773000 X:121500000..121550000
C 0.452000 0.948000 1.780000 X:121550000..121600000
C 0.487000 0.981000 1.741000 X:121600000..121650000
C 0.479000 1.043000 1.734000 X:121650000..121700000
C 0.453000 1.089000 1.728000 X:121700000..121750000
C 0.464000 1.070000 1.712000 X:121750000..121800000
C 0.456000 1.170000 1.767000 X:121800000..121850000
C 0.433000 1.129000 1.733000 X:121850000..121900000
C 0.408000 1.141000 1.692000 X:121900000..121950000
C 0.407000 1.160000 1.644000 X:121950000..122000000
C 0.394000 1.176000 1.699000 X:122000000..122050000
C 0.382000 1.173000 1.691000 X:122050000..122100000
C 0.375000 1.110000 1.620000 X:122100000..122150000
C 0.327000 1.028000 1.589000 X:122150000..122200000
C 0.235000 0.958000 1.569000 X:122200000..122250000
C 0.073000 0.906000 1.532000 X:122250000..122300000
C -0.166000 0.843000 1.492000 X:122300000..122350000
C -0.314000 0.788000 1.378000 X:122350000..122400000
C -0.397000 0.715000 1.253000 X:122400000..122450000
C -0.439000 0.657000 1.261000 X:122450000..122500000
C -0.487000 0.652000 1.221000 X:122500000..122550000
C -0.473000 0.666000 1.143000 X:122550000..122600000
C -0.439000 0.712000 1.002000 X:122600000..122650000
C -0.500000 0.733000 0.903000 X:122650000..122700000
C -0.644000 0.729000 0.756000 X:122700000..122750000
C -0.751000 0.720000 0.580000 X:122750000..122800000
C -0.823000 0.703000 0.498000 X:122800000..122850000
C -0.761000 0.683000 0.447000 X:122850000..122900000
C -0.758000 0.693000 0.400000 X:122900000..122950000
C -0.807000 0.716000 0.324000 X:122950000..123000000
C -0.765000 0.704000 0.301000 X:123000000..123050000
C -0.714000 0.697000 0.286000 X:123050000..123100000
C -0.755000 0.697000 0.257000 X:123100000..123150000
C -0.723000 0.726000 0.234000 X:123150000..123200000
C -0.476000 0.764000 0.287000 X:123200000..123250000
C -0.235000 0.876000 0.319000 X:123250000..123300000
C -0.056000 0.990000 0.330000 X:123300000..123350000
C 0.060000 1.056000 0.332000 X:123350000..123400000
C 0.116000 1.144000 0.326000 X:123400000..123450000
C 0.156000 1.212000 0.319000 X:123450000..123500000
C 0.187000 1.289000 0.313000 X:123500000..123550000
C 0.208000 1.346000 0.314000 X:123550000..123600000
C 0.264000 1.295000 0.322000 X:123600000..123650000
C 0.270000 1.312000 0.321000 X:123650000..123700000
C 0.264000 1.342000 0.321000 X:123700000..123750000
C 0.288000 1.345000 0.329000 X:123750000..123800000
C 0.369000 1.382000 0.342000 X:123800000..123850000
C 0.418000 1.374000 0.351000 X:123850000..123900000
C 0.435000 1.433000 0.360000 X:123900000..123950000
C 0.488000 1.442000 0.382000 X:123950000..124000000
C 0.476000 1.534000 0.395000 X:124000000..124050000
C 0.459000 1.601000 0.407000 X:124050000..124100000
C 0.478000 1.611000 0.422000 X:124100000..124150000
C 0.496000 1.605000 0.437000 X:124150000..124200000
C 0.495000 1.671000 0.450000 X:124200000..124250000
C 0.504000 1.641000 0.463000 X:124250000..124300000
C 0.521000 1.628000 0.459000 X:124300000..124350000
C 0.536000 1.685000 0.459000 X:124350000..124400000
C 0.575000 1.675000 0.457000 X:124400000..124450000
C 0.585000 1.678000 0.452000 X:124450000..124500000
C 0.604000 1.742000 0.452000 X:124500000..124550000
C 0.632000 1.755000 0.455000 X:124550000..124600000
C 0.657000 1.770000 0.454000 X:124600000..124650000
C 0.702000 1.792000 0.445000 X:124650000..124700000
C 0.709000 1.766000 0.428000 X:124700000..124750000
C 0.732000 1.778000 0.418000 X:124750000..124800000
C 0.783000 1.754000 0.406000 X:124800000..124850000
C 0.803000 1.734000 0.397000 X:124850000..124900000
C 0.823000 1.763000 0.394000 X:124900000..124950000
C 0.823000 1.752000 0.386000 X:124950000..125000000
C 0.819000 1.770000 0.378000 X:125000000..125050000
C 0.817000 1.795000 0.370000 X:125050000..125100000
C 0.813000 1.818000 0.371000 X:125100000..125150000
C 0.812000 1.816000 0.376000 X:125150000..125200000
C 0.810000 1.809000 0.383000 X:125200000..125250000
C 0.806000 1.753000 0.394000 X:125250000..125300000
C 0.789000 1.781000 0.402000 X:125300000..125350000
C 0.764000 1.809000 0.407000 X:125350000..125400000
C 0.753000 1.823000 0.409000 X:125400000..125450000
C 0.713000 1.834000 0.405000 X:125450000..125500000
C 0.701000 1.848000 0.409000 X:125500000..125550000
C 0.715000 1.863000 0.405000 X:125550000..125600000
C 0.740000 1.891000 0.390000 X:125600000..125650000
C 0.774000 1.815000 0.383000 X:125650000..125700000
C 0.802000 1.774000 0.373000 X:125700000..125750000
C 0.822000 1.790000 0.368000 X:125750000..125800000
C 0.820000 1.786000 0.357000 X:125800000..125850000
C 0.794000 1.787000 0.352000 X:125850000..125900000
C 0.788000 1.822000 0.351000 X:125900000..125950000
C 0.798000 1.846000 0.356000 X:125950000..126000000
C 0.807000 1.894000 0.358000 X:126000000..126050000
C 0.804000 1.843000 0.354000 X:126050000..126100000
C 0.808000 1.880000 0.343000 X:126100000..126150000
C 0.807000 1.879000 0.342000 X:126150000..126200000
C 0.777000 1.892000 0.347000 X:126200000..126250000
C 0.761000 1.886000 0.354000 X:126250000..126300000
C 0.744000 1.876000 0.370000 X:126300000..126350000
C 0.726000 1.939000 0.379000 X:126350000..126400000
C 0.710000 1.964000 0.381000 X:126400000..126450000
C 0.712000 1.919000 0.385000 X:126450000..126500000
C 0.713000 1.913000 0.397000 X:126500000..126550000
C 0.698000 1.915000 0.425000 X:126550000..126600000
C 0.712000 1.919000 0.390000 X:126600000..126650000
C 0.735000 1.930000 0.370000 X:126650000..126700000
C 0.734000 1.955000 0.356000 X:126700000..126750000
C 0.779000 1.990000 0.352000 X:126750000..126800000
C 0.772000 2.000000 0.336000 X:126800000..126850000
C 0.773000 2.005000 0.327000 X:126850000..126900000
C 0.773000 1.992000 0.332000 X:126900000..126950000
C 0.764000 1.975000 0.332000 X:126950000..127000000
C 0.740000 1.952000 0.330000 X:127000000..127050000
C 0.752000 2.006000 0.320000 X:127050000..127100000
C 0.747000 1.969000 0.305000 X:127100000..127150000
C 0.753000 1.966000 0.299000 X:127150000..127200000
C 0.786000 1.986000 0.292000 X:127200000..127250000
C 0.812000 1.938000 0.289000 X:127250000..127300000
C 0.825000 1.962000 0.292000 X:127300000..127350000
C 0.791000 1.954000 0.289000 X:127350000..127400000
C 0.759000 1.929000 0.286000 X:127400000..127450000
C 0.729000 1.910000 0.288000 X:127450000..127500000
C 0.713000 1.904000 0.283000 X:127500000..127550000
C 0.737000 1.855000 0.286000 X:127550000..127600000
C 0.745000 1.828000 0.279000 X:127600000..127650000
C 0.745000 1.852000 0.270000 X:127650000..127700000
C 0.742000 1.844000 0.264000 X:127700000..127750000
C 0.768000 1.793000 0.269000 X:127750000..127800000
C 0.767000 1.812000 0.270000 X:127800000..127850000
C 0.763000 1.833000 0.271000 X:127850000..127900000
C 0.746000 1.856000 0.263000 X:127900000..127950000
C 0.723000 1.796000 0.260000 X:127950000..128000000
C 0.699000 1.768000 0.249000 X:128000000..128050000
C 0.704000 1.723000 0.244000 X:128050000..128100000
C 0.677000 1.770000 0.226000 X:128100000..128150000
C 0.670000 1.693000 0.220000 X:128150000..128200000
C 0.622000 1.599000 0.206000 X:128200000..128250000
C 0.562000 1.575000 0.184000 X:128250000..128300000
C 0.517000 1.511000 0.162000 X:128300000..128350000
C 0.462000 1.544000 0.128000 X:128350000..128400000
C 0.431000 1.614000 0.083000 X:128400000..128450000
C 0.408000 1.573000 0.029000 X:128450000..128500000
C 0.376000 1.393000 -0.039000 X:128500000..128550000
C 0.270000 1.244000 -0.153000 X:128550000..128600000
C 0.123000 1.101000 -0.317000 X:128600000..128650000
C -0.126000 1.037000 -0.625000 X:128650000..128700000
C -0.285000 1.109000 -0.963000 X:128700000..128750000
C -0.318000 1.174000 -1.114000 X:128750000..128800000
C -0.305000 1.139000 -1.114000 X:128800000..128850000
C -0.340000 1.165000 -1.117000 X:128850000..128900000
C -0.348000 1.166000 -1.094000 X:128900000..128950000
C -0.326000 1.211000 -1.112000 X:128950000..129000000
C -0.296000 1.274000 -1.142000 X:129000000..129050000
C -0.265000 1.340000 -1.225000 X:129050000..129100000
C -0.222000 1.323000 -1.202000 X:129100000..129150000
C -0.236000 1.436000 -1.289000 X:129150000..129200000
C -0.246000 1.471000 -1.291000 X:129200000..129250000
C -0.254000 1.458000 -1.267000 X:129250000..129300000
C -0.252000 1.376000 -1.254000 X:129300000..129350000
C -0.231000 1.153000 -1.130000 X:129350000..129400000
C -0.167000 0.957000 -1.011000 X:129400000..129450000
C -0.172000 0.989000 -1.100000 X:129450000..129500000
C -0.106000 0.992000 -1.103000 X:129500000..129550000
C 0.007000 0.985000 -1.034000 X:129550000..129600000
C 0.045000 1.003000 -0.976000 X:129600000..129650000
C 0.043000 1.060000 -1.098000 X:129650000..129700000
C 0.106000 1.042000 -1.077000 X:129700000..129750000
C 0.143000 0.910000 -0.990000 X:129750000..129800000
C 0.056000 0.854000 -1.073000 X:129800000..129850000
C 0.037000 0.810000 -1.019000 X:129850000..129900000
C 0.019000 0.804000 -0.963000 X:129900000..129950000
C 0.085000 0.793000 -0.985000 X:129950000..130000000
C 0.223000 0.841000 -1.145000 X:130000000..130050000
C 0.459000 0.878000 -1.085000 X:130050000..130100000
C 0.622000 0.936000 -0.972000 X:130100000..130150000
C 0.675000 1.000000 -0.701000 X:130150000..130200000
C 0.685000 1.050000 -0.443000 X:130200000..130250000
C 0.655000 1.134000 -0.324000 X:130250000..130300000
C 0.666000 1.178000 -0.250000 X:130300000..130350000
C 0.718000 1.176000 -0.152000 X:130350000..130400000
C 0.771000 1.192000 -0.175000 X:130400000..130450000
C 0.834000 1.138000 -0.153000 X:130450000..130500000
C 0.911000 1.055000 -0.124000 X:130500000..130550000
C 0.947000 1.061000 -0.139000 X:130550000..130600000
C 0.980000 1.003000 -0.136000 X:130600000..130650000
C 0.970000 0.915000 -0.135000 X:130650000..130700000
C 0.946000 0.841000 -0.161000 X:130700000..130750000
C 0.869000 0.716000 -0.181000 X:130750000..130800000
C 0.752000 0.538000 -0.191000 X:130800000..130850000
C 0.657000 0.434000 -0.262000 X:130850000..130900000
C 0.579000 0.382000 -0.459000 X:130900000..130950000
C 0.501000 0.352000 -0.890000 X:130950000..131000000
C 0.553000 0.432000 -0.887000 X:131000000..131050000
C 0.523000 0.476000 -0.850000 X:131050000..131100000
C 0.326000 0.476000 -0.968000 X:131100000..131150000
C 0.271000 0.523000 -1.112000 X:131150000..131200000
C 0.343000 0.625000 -1.175000 X:131200000..131250000
C 0.460000 0.646000 -0.999000 X:131250000..131300000
C 0.377000 0.721000 -1.108000 X:131300000..131350000
C 0.350000 0.820000 -1.271000 X:131350000..131400000
C 0.351000 0.894000 -1.270000 X:131400000..131450000
C 0.378000 0.826000 -1.058000 X:131450000..131500000
C 0.287000 0.765000 -1.041000 X:131500000..131550000
C 0.332000 0.728000 -1.086000 X:131550000..131600000
C 0.402000 0.716000 -1.149000 X:131600000..131650000
C 0.529000 0.784000 -1.173000 X:131650000..131700000
C 0.629000 0.922000 -1.326000 X:131700000..131750000
C 0.731000 0.926000 -1.246000 X:131750000..131800000
C 0.823000 0.879000 -1.017000 X:131800000..131850000
C 0.817000 0.888000 -0.901000 X:131850000..131900000
C 0.765000 0.901000 -0.769000 X:131900000..131950000
C 0.787000 0.867000 -0.575000 X:131950000..132000000
C 0.818000 0.852000 -0.320000 X:132000000..132050000
