40
BACH OUTPUT
C 0.0000 0.0000 0.0000 11:4500000..4550000
C 0.0766 0.0000 0.0000 11:4550000..4600000
C 0.1499 0.0190 0.0000 11:4600000..4650000
C 0.2145 0.0691 0.0072 11:4650000..4700000
C 0.2231 0.1239 0.0619 11:4700000..4750000
C 0.2496 0.1935 0.0286 11:4750000..4800000
C 0.2137 0.1999 -0.0490 11:4800000..4850000
C 0.2357 0.1696 -0.1237 11:4850000..4900000
C 0.3259 0.1517 -0.1259 11:4900000..4950000
C 0.3250 0.0682 -0.1572 11:4950000..5000000
C 0.3349 0.0306 -0.0727 11:5000000..5050000
C 0.4216 0.0164 -0.0381 11:5050000..5100000
C 0.4421 -0.0697 -0.0180 11:5100000..5150000
C 0.4724 -0.1381 -0.0687 11:5150000..5200000
C 0.4577 -0.2282 -0.0662 11:5200000..5250000
C 0.3882 -0.2582 -0.0526 11:5250000..5300000
C 0.3699 -0.2321 0.0087 11:5300000..5350000
C 0.4209 -0.2118 0.0328 11:5350000..5400000
C 0.4965 -0.1914 0.0620 11:5400000..5450000
C 0.5326 -0.2198 0.1387 11:5450000..5500000
C 0.5925 -0.2826 0.1546 11:5500000..5550000
C 0.5883 -0.3436 0.1348 11:5550000..5600000
C 0.5873 -0.3912 0.1994 11:5600000..5650000
C 0.5846 -0.4528 0.2117 11:5650000..5700000
C 0.5358 -0.4314 0.2252 11:5700000..5750000
C 0.4732 -0.3903 0.2055 11:5750000..5800000
C 0.5096 -0.3238 0.2291 11:5800000..5850000
C 0.4699 -0.2696 0.2826 11:5850000..5900000
C 0.5235 -0.2126 0.3317 11:5900000..5950000
C 0.5274 -0.1640 0.4040 11:5950000..6000000
C 0.5563 -0.1962 0.4835 11:6000000..6050000
C 0.5754 -0.1546 0.5405 11:6050000..6100000
C 0.6357 -0.1033 0.5616 11:6100000..6150000
C 0.7007 -0.1593 0.5469 11:6150000..6200000
C 0.6924 -0.2350 0.5613 11:6200000..6250000
C 0.6527 -0.2726 0.5757 11:6250000..6300000
C 0.5936 -0.2785 0.5743 11:6300000..6350000
C 0.5976 -0.2972 0.6300 11:6350000..6400000
C 0.6122 -0.3608 0.6703 11:6400000..6450000
C 0.6191 -0.3402 0.7078 11:6450000..6500000